# This file is shared by all ib_credits simulations.
# Lines beginning with `#' are comments

[General]

record-eventlog = false
sim-time-limit = 0.015s # max number of simulation seconds to run
network = ib_model.examples.evaluation_fattree648.fattree_648_network

# this line is for Cmdenv
print-undisposed = false
debug-on-errors = true

# cmdenv-express-mode = false # control msg printing
# cmdenv-message-trace= true  # info on every msg

# cmdenv-runs-to-execute = 1
include ../../modules.ini
include ../../pcie_8x_g2.ini
include fat_tree_648_srcLid.ini

**.startStatCol = 100us


##################################################################
# APP
##################################################################

# DESTINATION

# possible values are: param | seq_loop | seq_once seq_rand
**.dstMode = "param" # send by the given dstLid parameter

# Not relevant for dstLid mode but still required
**.app.dstSeqVecFile = ""
**.app.dstSeqVecIdx = 0



# Msg Length
**.msgLenMode = "param"
**.msgMtuLen = 2048B
**.servers[*].app.msgNum = 1
**.servers[0].app.dstLid = 19
**.servers[1].app.dstLid = 19
**.servers[2].app.dstLid = 19
**.servers[3].app.dstLid = 19
**.servers[4].app.dstLid = 19



**.servers[*].app.msgLength = 4194304*20B # 4M messages

# not relevant for param mode but still required
**.msgLenSet = "4096 4096 4096"
**.msgLenProb = "1 1 1 1"  

**.servers[*].app.msg2msgGap = 1ns

**.servers[*].app.endTime = 0.001
**.servers[*].gen.startTime = 0



# Others:
**.msgSQ = 0

##################################################################
# GENERATOR     
##################################################################
#**.maxContPkts = 3
**.maxContPkts = 10
**.popDlyPerByte = 0.25ns
**.genDlyPerByte = 0.25ns


**.maxQueuedPerVL = 10
**.flit2FlitGap = 0.001ns
**.pkt2PktGap = 0.001ns
**.servers[0].**.on_throughput_obuf = 1
**.servers[1].**.on_throughput_obuf = 1
**.servers[2].**.on_throughput_obuf = 1
**.servers[3].**.on_throughput_obuf = 1
**.servers[4].**.on_throughput_obuf = 1
**.timeStep_us = 25us
**.on_cc = 0
**.on_newcc = 1
**.CCT_Timer = 25us
**.vlarb.markrate = 1


##################################################################
# IBUF  
##################################################################
# speedup
**ibuf.maxBeingSent = 1



**ibuf.totalBufferSize = 1000 # in credits
**servers[*]**.ibuf.maxStatic* = 32
**.**switches[*].port[*].ibuf.maxStatic* = 32
**.**switches[*].**.obuf.size = 4      # in flits
**.**servers[*].obuf.size =2      # in flits

##################################################################
# SWITCH  
##################################################################
# generated file holding port groups and FDBs vector indexes
**.**switches[*]**.fdbsVecFile = "fat_tree_648.fdbs"
include fat_tree_648.fdbs.ini

**.pktFwdType = "Pktfwd"


**.**switches[*].**.vlarb.coreFreq = 1200MHz
**.**servers[*].vlarb.coreFreq = 1000MHz
**.**switches[*].**.vlarb.busWidth = 24B  # Baz can push 72 bytes out of ibuf into 3 obufs
**.**servers[*].vlarb.busWidth = 16B  # assume an HCA is supporting QDR with 250MHz

#####################################
# RUNS
#####################################
[Config One]
description = "Simple Run"
repeat = 2